## avogadro generated ORCA input file 
# Advanced Mode
#

! UKS B3LYP ZORA-def2-TZVP def2/J RIJCOSX TightSCF ZORA
%tddft
orbwin[0] = 0,0,-1,-1 # Selecting the alpha set (orbwin[0]). Selecting donor orbital range : 0 to 0 (Mo 1s orbital only) and acceptor orbital range: -1 to -1 (meaning all virtual orbitals)
orbwin[1] = 0,0,-1,-1 # Selecting the beta set in the same way as the alpha set. Not necessary if system is closed-shell.
doquad true # Calculate quadrupole contributions.
nroots 60 # Setting the number of roots (transitions) to be calculated.
maxdim 10 # Setting the scaling of maximum dimension of the expansion space.
end 

* xyz 0 1
  Fe        1.06667        7.46668        3.20001
  Fe        7.46668        5.33334        7.46668
  Fe        3.20001        7.46668        1.06667
  Fe        1.06667        5.33334        1.06667
  Fe        6.40001        2.13334        6.40001
  Fe        4.26668        0.00000        4.26668
  Fe        1.06667        3.20001        7.46668
  Fe        7.46668        1.06667        3.20001
  Fe        3.20001        3.20001        5.33334
  Fe        1.06667        1.06667        5.33334
  Fe        6.40001        6.40001        2.13334
  Fe        4.26668        4.26668        0.00000
  Fe        5.33334        7.46668        7.46668
  Fe        3.20001        5.33334        3.20001
  Fe        7.46668        7.46668        5.33334
  Fe        5.33334        5.33334        5.33334
  Fe        2.13334        2.13334        2.13334
  Fe        0.00000        0.00000        0.00000
  Fe        5.33334        3.20001        3.20001
  Fe        3.20001        1.06667        7.46668
  Fe        7.46668        3.20001        1.06667
  Fe        5.33334        1.06667        1.06667
  Fe        2.13334        6.40001        6.40001
  Fe        0.00000        4.26668        4.26668
   O        1.10378        7.42957        1.10378
   O        1.02955        5.29623        7.50380
   O        7.50380        3.23712        7.50380
   O        1.10378        5.37046        3.16289
   O        7.50380        5.29623        1.02955
   O        3.16289        7.42957        3.16289
   O        1.02955        3.23712        1.02955
   O        3.16289        5.37046        1.10378
   O        1.10378        3.16289        5.37046
   O        1.02955        1.02955        3.23712
   O        7.50380        7.50380        3.23712
   O        1.10378        1.10378        7.42957
   O        7.50380        1.02955        5.29623
   O        3.16289        3.16289        7.42957
   O        1.02955        7.50380        5.29623
   O        3.16289        1.10378        5.37046
   O        5.37046        7.42957        5.37046
   O        5.29623        5.29623        3.23712
   O        3.23712        3.23712        3.23712
   O        5.37046        5.37046        7.42957
   O        3.23712        5.29623        5.29623
   O        7.42957        7.42957        7.42957
   O        5.29623        3.23712        5.29623
   O        7.42957        5.37046        5.37046
   O        5.37046        3.16289        1.10378
   O        5.29623        1.02955        7.50380
   O        3.23712        7.50380        7.50380
   O        5.37046        1.10378        3.16289
   O        3.23712        1.02955        1.02955
   O        7.42957        3.16289        3.16289
   O        5.29623        7.50380        1.02955
   O        7.42957        1.10378        1.10378
*

